Circuit: * Z:\home\icarosix\WinData\Cursos\Dispositivos y Sistemas Electronicos\LTSpice\PassiveElements\spice\DCSweepBJT.asc

Vce: Missing value, assumed 0V @ DC
.OP point found by inspection.
.step ib=0
.step ib=5e-005
.step ib=0.0001
.step ib=0.00015
.step ib=0.0002
.step ib=0.00025

Date: Tue Sep 14 11:57:44 2021
Total elapsed time: 0.047 seconds.

tnom = 27
temp = 27
method = trap
totiter = 1865
traniter = 0
tranpoints = 0
accept = 0
rejected = 0
matrix size = 6
fillins = 0
solver = Normal
Matrix Compiler1: 360 bytes object code size  0.5/0.5/[0.5]
Matrix Compiler2: 462 bytes object code size  0.5/0.5/[0.5]

