Circuit: * Z:\home\icarosix\WinData\Cursos\Dispositivos y Sistemas Electronicos\LTSpice\PassiveElements\spice\Draft1.asc

Direct Newton iteration for .op point succeeded.

Date: Tue Sep 07 12:28:37 2021
Total elapsed time: 0.025 seconds.

tnom = 27
temp = 27
method = modified trap
totiter = 2037
traniter = 2034
tranpoints = 1018
accept = 1018
rejected = 0
matrix size = 2
fillins = 0
solver = Normal
Matrix Compiler1: 36 bytes object code size  0.5/0.5/[0.4]
Matrix Compiler2: 96 bytes object code size  0.5/0.5/[0.5]

