Circuit: * Z:\home\icarosix\WinData\Cursos\Dispositivos y Sistemas Electronicos\LTSpice\PassiveElements\spice\Rnet.asc

V1: Missing value, assumed 0V @ DC
Direct Newton iteration for .op point succeeded.

Date: Tue Sep 14 12:36:05 2021
Total elapsed time: 0.028 seconds.

tnom = 27
temp = 27
method = trap
totiter = 3
traniter = 0
tranpoints = 0
accept = 0
rejected = 0
matrix size = 4
fillins = 0
solver = Normal
Matrix Compiler1: 100 bytes object code size
Matrix Compiler2: 248 bytes object code size
