Circuit: * Z:\home\icarosix\WinData\Cursos\Dispositivos y Sistemas Electronicos\LTSpice\PassiveElements\spice\VoltageDividerWC.asc

Direct Newton iteration for .op point succeeded.
.step run=1
.step run=2
.step run=3

Date: Tue Sep 14 12:07:42 2021
Total elapsed time: 1.006 seconds.

tnom = 27
temp = 27
method = modified trap
totiter = 120037
traniter = 120034
tranpoints = 60018
accept = 60018
rejected = 0
matrix size = 3
fillins = 0
solver = Normal
Matrix Compiler1: 50 bytes object code size  0.5/0.6/[0.5]
Matrix Compiler2: 175 bytes object code size  0.5/0.5/[0.4]

